* C:\Users\matth\OneDrive - Technische Universität Graz\Dokumente\Studium\Graz\Semester_3\Elektrische_Netzwerke_und_Mehrtore\UE_git\UE_3\PSpice\GR04_UE_03_whole_simulation.sch

* Schematics Version 9.1 - Web Update 1
* Sun Nov 08 17:48:06 2020



** Analysis setup **
.tran 0ns 101.275ms
.OP 


* From [PSPICE NETLIST] section of pspiceev.ini:
.lib "nom.lib"

.INC "GR04_UE_03_whole_simulation.net"
.INC "GR04_UE_03_whole_simulation.als"


.probe


.END
